NOVO24/1726537/Cargas.dss
! ==========================================================
! CARGAS — mes 01
! BT: UCBT_tab agregada por transformador (kW = ENE/730 h)
! MT: UCMT_tab individual no PAC do consumidor
! fator de escala aplicado: 1
! 0 cargas de MT descartadas por PAC ausente da rede.
! ==========================================================
New Load.BT_324832976_325483920_1 Bus1=node_410910117.1.4 Phases=1 Model=8 zipv=(0.5,0,0.5,1,0,0,0) kv=0.1200 pf=0.92 kW=0.239726 Daily=RES1_25
New Load.BT_324832976_325483920_2 Bus1=node_410910117.2.4 Phases=1 Model=8 zipv=(0.5,0,0.5,1,0,0,0) kv=0.1200 pf=0.92 kW=0.239726 Daily=RES1_25
New Load.BT_324834545_325370842_1 Bus1=node_404863185.1.4 Phases=1 Model=8 zipv=(0.5,0,0.5,1,0,0,0) kv=0.1270 pf=0.92 kW=4.179909 Daily=COM1_26
New Load.BT_324834545_325370842_2 Bus1=node_404863185.2.4 Phases=1 Model=8 zipv=(0.5,0,0.5,1,0,0,0) kv=0.1270 pf=0.92 kW=4.179909 Daily=COM1_26
New Load.BT_324834545_325370842_3 Bus1=node_404863185.3.4 Phases=1 Model=8 zipv=(0.5,0,0.5,1,0,0,0) kv=0.1270 pf=0.92 kW=4.179909 Daily=COM1_26
New Load.BT_966164265_966164266_1 Bus1=node_1228133464.1.4 Phases=1 Model=8 zipv=(0.5,0,0.5,1,0,0,0) kv=0.1270 pf=0.92 kW=0.002740 Daily=RES1_25
New Load.BT_966164265_966164266_2 Bus1=node_1228133464.2.4 Phases=1 Model=8 zipv=(0.5,0,0.5,1,0,0,0) kv=0.1270 pf=0.92 kW=0.002740 Daily=RES1_25
New Load.BT_966164265_966164266_3 Bus1=node_1228133464.3.4 Phases=1 Model=8 zipv=(0.5,0,0.5,1,0,0,0) kv=0.1270 pf=0.92 kW=0.002740 Daily=RES1_25
New Load.BT_1144260964_1144260963_1 Bus1=node_1414486737.1.4 Phases=1 Model=8 zipv=(0.5,0,0.5,1,0,0,0) kv=0.1270 pf=0.92 kW=0.180365 Daily=RES1_25
New Load.BT_1144260964_1144260963_2 Bus1=node_1414486737.2.4 Phases=1 Model=8 zipv=(0.5,0,0.5,1,0,0,0) kv=0.1270 pf=0.92 kW=0.180365 Daily=RES1_25
New Load.BT_1144260964_1144260963_3 Bus1=node_1414486737.3.4 Phases=1 Model=8 zipv=(0.5,0,0.5,1,0,0,0) kv=0.1270 pf=0.92 kW=0.180365 Daily=RES1_25
New Load.BT_324521409_325392605_1 Bus1=node_404862261.1.4 Phases=1 Model=8 zipv=(0.5,0,0.5,1,0,0,0) kv=0.1270 pf=0.92 kW=10.022831 Daily=RES1_25
New Load.BT_324521409_325392605_2 Bus1=node_404862261.2.4 Phases=1 Model=8 zipv=(0.5,0,0.5,1,0,0,0) kv=0.1270 pf=0.92 kW=10.022831 Daily=RES1_25
New Load.BT_324521409_325392605_3 Bus1=node_404862261.3.4 Phases=1 Model=8 zipv=(0.5,0,0.5,1,0,0,0) kv=0.1270 pf=0.92 kW=10.022831 Daily=RES1_25
New Load.BT_324519382_325481471_1 Bus1=node_404863188.1.4 Phases=1 Model=8 zipv=(0.5,0,0.5,1,0,0,0) kv=0.1270 pf=0.92 kW=2.082648 Daily=RES1_25
New Load.BT_324519382_325481471_2 Bus1=node_404863188.2.4 Phases=1 Model=8 zipv=(0.5,0,0.5,1,0,0,0) kv=0.1270 pf=0.92 kW=2.082648 Daily=RES1_25
New Load.BT_324519382_325481471_3 Bus1=node_404863188.3.4 Phases=1 Model=8 zipv=(0.5,0,0.5,1,0,0,0) kv=0.1270 pf=0.92 kW=2.082648 Daily=RES1_25
New Load.BT_324957192_325393596_1 Bus1=node_407918609.1.4 Phases=1 Model=8 zipv=(0.5,0,0.5,1,0,0,0) kv=0.1270 pf=0.92 kW=2.893151 Daily=RES1_25
New Load.BT_324957192_325393596_2 Bus1=node_407918609.2.4 Phases=1 Model=8 zipv=(0.5,0,0.5,1,0,0,0) kv=0.1270 pf=0.92 kW=2.893151 Daily=RES1_25
New Load.BT_324957192_325393596_3 Bus1=node_407918609.3.4 Phases=1 Model=8 zipv=(0.5,0,0.5,1,0,0,0) kv=0.1270 pf=0.92 kW=2.893151 Daily=RES1_25
New Load.BT_325089006_325446349_1 Bus1=node_408846506.1.4 Phases=1 Model=8 zipv=(0.5,0,0.5,1,0,0,0) kv=0.1200 pf=0.92 kW=0.799315 Daily=RES1_25
New Load.BT_325089006_325446349_2 Bus1=node_408846506.2.4 Phases=1 Model=8 zipv=(0.5,0,0.5,1,0,0,0) kv=0.1200 pf=0.92 kW=0.799315 Daily=RES1_25
New Load.BT_325089829_325443538_1 Bus1=node_407556071.1.4 Phases=1 Model=8 zipv=(0.5,0,0.5,1,0,0,0) kv=0.1270 pf=0.92 kW=6.738356 Daily=RES1_25
New Load.BT_325089829_325443538_2 Bus1=node_407556071.2.4 Phases=1 Model=8 zipv=(0.5,0,0.5,1,0,0,0) kv=0.1270 pf=0.92 kW=6.738356 Daily=RES1_25
New Load.BT_325089829_325443538_3 Bus1=node_407556071.3.4 Phases=1 Model=8 zipv=(0.5,0,0.5,1,0,0,0) kv=0.1270 pf=0.92 kW=6.738356 Daily=RES1_25
New Load.BT_324208167_325420394_1 Bus1=node_418707382.1.4 Phases=1 Model=8 zipv=(0.5,0,0.5,1,0,0,0) kv=0.1270 pf=0.92 kW=2.828311 Daily=RES1_25
New Load.BT_324208167_325420394_2 Bus1=node_418707382.2.4 Phases=1 Model=8 zipv=(0.5,0,0.5,1,0,0,0) kv=0.1270 pf=0.92 kW=2.828311 Daily=RES1_25
New Load.BT_324208167_325420394_3 Bus1=node_418707382.3.4 Phases=1 Model=8 zipv=(0.5,0,0.5,1,0,0,0) kv=0.1270 pf=0.92 kW=2.828311 Daily=RES1_25
New Load.BT_324961138_325468958_1 Bus1=node_418739399.1.4 Phases=1 Model=8 zipv=(0.5,0,0.5,1,0,0,0) kv=0.1200 pf=0.92 kW=0.400000 Daily=RES1_25
New Load.BT_324961138_325468958_2 Bus1=node_418739399.2.4 Phases=1 Model=8 zipv=(0.5,0,0.5,1,0,0,0) kv=0.1200 pf=0.92 kW=0.400000 Daily=RES1_25
New Load.BT_324959981_325420361_1 Bus1=node_407555687.1.4 Phases=1 Model=8 zipv=(0.5,0,0.5,1,0,0,0) kv=0.1270 pf=0.92 kW=5.173973 Daily=RES1_25
New Load.BT_324959981_325420361_2 Bus1=node_407555687.2.4 Phases=1 Model=8 zipv=(0.5,0,0.5,1,0,0,0) kv=0.1270 pf=0.92 kW=5.173973 Daily=RES1_25
New Load.BT_324959981_325420361_3 Bus1=node_407555687.3.4 Phases=1 Model=8 zipv=(0.5,0,0.5,1,0,0,0) kv=0.1270 pf=0.92 kW=5.173973 Daily=RES1_25
New Load.BT_324958998_325469659_1 Bus1=node_407554256.1.4 Phases=1 Model=8 zipv=(0.5,0,0.5,1,0,0,0) kv=0.1270 pf=0.92 kW=3.294521 Daily=RES1_25
New Load.BT_324958998_325469659_2 Bus1=node_407554256.2.4 Phases=1 Model=8 zipv=(0.5,0,0.5,1,0,0,0) kv=0.1270 pf=0.92 kW=3.294521 Daily=RES1_25
New Load.BT_324958998_325469659_3 Bus1=node_407554256.3.4 Phases=1 Model=8 zipv=(0.5,0,0.5,1,0,0,0) kv=0.1270 pf=0.92 kW=3.294521 Daily=RES1_25
New Load.BT_325085983_325372090_1 Bus1=node_409042248.1.4 Phases=1 Model=8 zipv=(0.5,0,0.5,1,0,0,0) kv=0.1270 pf=0.92 kW=1.201826 Daily=RES1_25
New Load.BT_325085983_325372090_2 Bus1=node_409042248.2.4 Phases=1 Model=8 zipv=(0.5,0,0.5,1,0,0,0) kv=0.1270 pf=0.92 kW=1.201826 Daily=RES1_25
New Load.BT_325085983_325372090_3 Bus1=node_409042248.3.4 Phases=1 Model=8 zipv=(0.5,0,0.5,1,0,0,0) kv=0.1270 pf=0.92 kW=1.201826 Daily=RES1_25
New Load.BT_324206685_325469686_1 Bus1=node_404862816.1.4 Phases=1 Model=8 zipv=(0.5,0,0.5,1,0,0,0) kv=0.1270 pf=0.92 kW=7.993151 Daily=RES1_25
New Load.BT_324206685_325469686_2 Bus1=node_404862816.2.4 Phases=1 Model=8 zipv=(0.5,0,0.5,1,0,0,0) kv=0.1270 pf=0.92 kW=7.993151 Daily=RES1_25
New Load.BT_324206685_325469686_3 Bus1=node_404862816.3.4 Phases=1 Model=8 zipv=(0.5,0,0.5,1,0,0,0) kv=0.1270 pf=0.92 kW=7.993151 Daily=RES1_25
New Load.BT_324685140_325392464_1 Bus1=node_408026464.1.4 Phases=1 Model=8 zipv=(0.5,0,0.5,1,0,0,0) kv=0.1200 pf=0.92 kW=0.326027 Daily=RES1_25
New Load.BT_324685140_325392464_2 Bus1=node_408026464.2.4 Phases=1 Model=8 zipv=(0.5,0,0.5,1,0,0,0) kv=0.1200 pf=0.92 kW=0.326027 Daily=RES1_25
New Load.BT_324521561_325394191_1 Bus1=node_418764397.1.4 Phases=1 Model=8 zipv=(0.5,0,0.5,1,0,0,0) kv=0.1200 pf=0.92 kW=0.424658 Daily=RES1_25
New Load.BT_324521561_325394191_2 Bus1=node_418764397.2.4 Phases=1 Model=8 zipv=(0.5,0,0.5,1,0,0,0) kv=0.1200 pf=0.92 kW=0.424658 Daily=RES1_25
New Load.BT_324522948_325443545_1 Bus1=node_418468704.1.4 Phases=1 Model=8 zipv=(0.5,0,0.5,1,0,0,0) kv=0.1270 pf=0.92 kW=2.614612 Daily=RES1_25
New Load.BT_324522948_325443545_2 Bus1=node_418468704.2.4 Phases=1 Model=8 zipv=(0.5,0,0.5,1,0,0,0) kv=0.1270 pf=0.92 kW=2.614612 Daily=RES1_25
New Load.BT_324522948_325443545_3 Bus1=node_418468704.3.4 Phases=1 Model=8 zipv=(0.5,0,0.5,1,0,0,0) kv=0.1270 pf=0.92 kW=2.614612 Daily=RES1_25
New Load.BT_324957830_325482490_1 Bus1=node_411832158.1.4 Phases=1 Model=8 zipv=(0.5,0,0.5,1,0,0,0) kv=0.1200 pf=0.92 kW=6.776712 Daily=RES1_25
New Load.BT_324957830_325482490_2 Bus1=node_411832158.2.4 Phases=1 Model=8 zipv=(0.5,0,0.5,1,0,0,0) kv=0.1200 pf=0.92 kW=6.776712 Daily=RES1_25
New Load.BT_324959095_325443540_1 Bus1=node_407554808.1.4 Phases=1 Model=8 zipv=(0.5,0,0.5,1,0,0,0) kv=0.1270 pf=0.92 kW=4.094977 Daily=RES1_25
New Load.BT_324959095_325443540_2 Bus1=node_407554808.2.4 Phases=1 Model=8 zipv=(0.5,0,0.5,1,0,0,0) kv=0.1270 pf=0.92 kW=4.094977 Daily=RES1_25
New Load.BT_324959095_325443540_3 Bus1=node_407554808.3.4 Phases=1 Model=8 zipv=(0.5,0,0.5,1,0,0,0) kv=0.1270 pf=0.92 kW=4.094977 Daily=RES1_25
New Load.BT_324684386_325469676_1 Bus1=node_418468134.1.4 Phases=1 Model=8 zipv=(0.5,0,0.5,1,0,0,0) kv=0.1270 pf=0.92 kW=5.711416 Daily=RES1_25
New Load.BT_324684386_325469676_2 Bus1=node_418468134.2.4 Phases=1 Model=8 zipv=(0.5,0,0.5,1,0,0,0) kv=0.1270 pf=0.92 kW=5.711416 Daily=RES1_25
New Load.BT_324684386_325469676_3 Bus1=node_418468134.3.4 Phases=1 Model=8 zipv=(0.5,0,0.5,1,0,0,0) kv=0.1270 pf=0.92 kW=5.711416 Daily=RES1_25
New Load.BT_325086968_325442866_1 Bus1=node_418588362.1.4 Phases=1 Model=8 zipv=(0.5,0,0.5,1,0,0,0) kv=0.1270 pf=0.92 kW=4.614612 Daily=RES1_25
New Load.BT_325086968_325442866_2 Bus1=node_418588362.2.4 Phases=1 Model=8 zipv=(0.5,0,0.5,1,0,0,0) kv=0.1270 pf=0.92 kW=4.614612 Daily=RES1_25
New Load.BT_325086968_325442866_3 Bus1=node_418588362.3.4 Phases=1 Model=8 zipv=(0.5,0,0.5,1,0,0,0) kv=0.1270 pf=0.92 kW=4.614612 Daily=RES1_25
New Load.BT_324207577_325484618_1 Bus1=node_407555969.1.4 Phases=1 Model=8 zipv=(0.5,0,0.5,1,0,0,0) kv=0.1270 pf=0.92 kW=12.128767 Daily=RES1_25
New Load.BT_324207577_325484618_2 Bus1=node_407555969.2.4 Phases=1 Model=8 zipv=(0.5,0,0.5,1,0,0,0) kv=0.1270 pf=0.92 kW=12.128767 Daily=RES1_25
New Load.BT_324207577_325484618_3 Bus1=node_407555969.3.4 Phases=1 Model=8 zipv=(0.5,0,0.5,1,0,0,0) kv=0.1270 pf=0.92 kW=12.128767 Daily=RES1_25
New Load.BT_324835746_325394275_1 Bus1=node_418706584.1.4 Phases=1 Model=8 zipv=(0.5,0,0.5,1,0,0,0) kv=0.1270 pf=0.92 kW=3.927854 Daily=RES1_25
New Load.BT_324835746_325394275_2 Bus1=node_418706584.2.4 Phases=1 Model=8 zipv=(0.5,0,0.5,1,0,0,0) kv=0.1270 pf=0.92 kW=3.927854 Daily=RES1_25
New Load.BT_324835746_325394275_3 Bus1=node_418706584.3.4 Phases=1 Model=8 zipv=(0.5,0,0.5,1,0,0,0) kv=0.1270 pf=0.92 kW=3.927854 Daily=RES1_25
New Load.BT_324682390_325481451_1 Bus1=node_407554805.1.4 Phases=1 Model=8 zipv=(0.5,0,0.5,1,0,0,0) kv=0.1270 pf=0.92 kW=6.963470 Daily=RES1_25
New Load.BT_324682390_325481451_2 Bus1=node_407554805.2.4 Phases=1 Model=8 zipv=(0.5,0,0.5,1,0,0,0) kv=0.1270 pf=0.92 kW=6.963470 Daily=RES1_25
New Load.BT_324682390_325481451_3 Bus1=node_407554805.3.4 Phases=1 Model=8 zipv=(0.5,0,0.5,1,0,0,0) kv=0.1270 pf=0.92 kW=6.963470 Daily=RES1_25
New Load.BT_324834365_325484608_1 Bus1=node_407847697.1.4 Phases=1 Model=8 zipv=(0.5,0,0.5,1,0,0,0) kv=0.1270 pf=0.92 kW=3.427397 Daily=RES1_25
New Load.BT_324834365_325484608_2 Bus1=node_407847697.2.4 Phases=1 Model=8 zipv=(0.5,0,0.5,1,0,0,0) kv=0.1270 pf=0.92 kW=3.427397 Daily=RES1_25
New Load.BT_324834365_325484608_3 Bus1=node_407847697.3.4 Phases=1 Model=8 zipv=(0.5,0,0.5,1,0,0,0) kv=0.1270 pf=0.92 kW=3.427397 Daily=RES1_25
New Load.BT_324522603_325392587_1 Bus1=node_407555627.1.4 Phases=1 Model=8 zipv=(0.5,0,0.5,1,0,0,0) kv=0.1270 pf=0.92 kW=3.266667 Daily=RES1_25
New Load.BT_324522603_325392587_2 Bus1=node_407555627.2.4 Phases=1 Model=8 zipv=(0.5,0,0.5,1,0,0,0) kv=0.1270 pf=0.92 kW=3.266667 Daily=RES1_25
New Load.BT_324522603_325392587_3 Bus1=node_407555627.3.4 Phases=1 Model=8 zipv=(0.5,0,0.5,1,0,0,0) kv=0.1270 pf=0.92 kW=3.266667 Daily=RES1_25
New Load.BT_324683880_325394239_1 Bus1=node_407554418.1.4 Phases=1 Model=8 zipv=(0.5,0,0.5,1,0,0,0) kv=0.1270 pf=0.92 kW=3.523288 Daily=RES1_25
New Load.BT_324683880_325394239_2 Bus1=node_407554418.2.4 Phases=1 Model=8 zipv=(0.5,0,0.5,1,0,0,0) kv=0.1270 pf=0.92 kW=3.523288 Daily=RES1_25
New Load.BT_324683880_325394239_3 Bus1=node_407554418.3.4 Phases=1 Model=8 zipv=(0.5,0,0.5,1,0,0,0) kv=0.1270 pf=0.92 kW=3.523288 Daily=RES1_25
New Load.BT_324523179_325370763_1 Bus1=node_418707379.1.4 Phases=1 Model=8 zipv=(0.5,0,0.5,1,0,0,0) kv=0.1270 pf=0.92 kW=2.534247 Daily=RES1_25
New Load.BT_324523179_325370763_2 Bus1=node_418707379.2.4 Phases=1 Model=8 zipv=(0.5,0,0.5,1,0,0,0) kv=0.1270 pf=0.92 kW=2.534247 Daily=RES1_25
New Load.BT_324523179_325370763_3 Bus1=node_418707379.3.4 Phases=1 Model=8 zipv=(0.5,0,0.5,1,0,0,0) kv=0.1270 pf=0.92 kW=2.534247 Daily=RES1_25
New Load.BT_324835548_325469601_1 Bus1=node_418497747.1.4 Phases=1 Model=8 zipv=(0.5,0,0.5,1,0,0,0) kv=0.1200 pf=0.92 kW=2.091781 Daily=RES1_25
New Load.BT_324835548_325469601_2 Bus1=node_418497747.2.4 Phases=1 Model=8 zipv=(0.5,0,0.5,1,0,0,0) kv=0.1200 pf=0.92 kW=2.091781 Daily=RES1_25
New Load.BT_324958185_325445356_1 Bus1=node_412047119.1.4 Phases=1 Model=8 zipv=(0.5,0,0.5,1,0,0,0) kv=0.1270 pf=0.92 kW=1.566210 Daily=COM1_26
New Load.BT_324958185_325445356_2 Bus1=node_412047119.2.4 Phases=1 Model=8 zipv=(0.5,0,0.5,1,0,0,0) kv=0.1270 pf=0.92 kW=1.566210 Daily=COM1_26
New Load.BT_324958185_325445356_3 Bus1=node_412047119.3.4 Phases=1 Model=8 zipv=(0.5,0,0.5,1,0,0,0) kv=0.1270 pf=0.92 kW=1.566210 Daily=COM1_26
New Load.BT_324959740_325392617_1 Bus1=node_407845942.1.4 Phases=1 Model=8 zipv=(0.5,0,0.5,1,0,0,0) kv=0.1270 pf=0.92 kW=3.384475 Daily=RES1_25
New Load.BT_324959740_325392617_2 Bus1=node_407845942.2.4 Phases=1 Model=8 zipv=(0.5,0,0.5,1,0,0,0) kv=0.1270 pf=0.92 kW=3.384475 Daily=RES1_25
New Load.BT_324959740_325392617_3 Bus1=node_407845942.3.4 Phases=1 Model=8 zipv=(0.5,0,0.5,1,0,0,0) kv=0.1270 pf=0.92 kW=3.384475 Daily=RES1_25
New Load.BT_324835942_325370858_1 Bus1=node_418471626.1.4 Phases=1 Model=8 zipv=(0.5,0,0.5,1,0,0,0) kv=0.1200 pf=0.92 kW=0.202055 Daily=RES1_25
New Load.BT_324835942_325370858_2 Bus1=node_418471626.2.4 Phases=1 Model=8 zipv=(0.5,0,0.5,1,0,0,0) kv=0.1200 pf=0.92 kW=0.202055 Daily=RES1_25
New Load.BT_324961046_2609271299_1 Bus1=node_407554490.1.4 Phases=1 Model=8 zipv=(0.5,0,0.5,1,0,0,0) kv=0.1270 pf=0.92 kW=2.915982 Daily=RES1_25
New Load.BT_324961046_2609271299_2 Bus1=node_407554490.2.4 Phases=1 Model=8 zipv=(0.5,0,0.5,1,0,0,0) kv=0.1270 pf=0.92 kW=2.915982 Daily=RES1_25
New Load.BT_324961046_2609271299_3 Bus1=node_407554490.3.4 Phases=1 Model=8 zipv=(0.5,0,0.5,1,0,0,0) kv=0.1270 pf=0.92 kW=2.915982 Daily=RES1_25
New Load.BT_324833570_325442846_1 Bus1=node_418738523.1.4 Phases=1 Model=8 zipv=(0.5,0,0.5,1,0,0,0) kv=0.1270 pf=0.92 kW=15.326941 Daily=RES1_25
New Load.BT_324833570_325442846_2 Bus1=node_418738523.2.4 Phases=1 Model=8 zipv=(0.5,0,0.5,1,0,0,0) kv=0.1270 pf=0.92 kW=15.326941 Daily=RES1_25
New Load.BT_324833570_325442846_3 Bus1=node_418738523.3.4 Phases=1 Model=8 zipv=(0.5,0,0.5,1,0,0,0) kv=0.1270 pf=0.92 kW=15.326941 Daily=RES1_25
New Load.BT_324834981_325470774_1 Bus1=node_411781466.1.4 Phases=1 Model=8 zipv=(0.5,0,0.5,1,0,0,0) kv=0.1200 pf=0.92 kW=0.950685 Daily=RES1_25
New Load.BT_324834981_325470774_2 Bus1=node_411781466.2.4 Phases=1 Model=8 zipv=(0.5,0,0.5,1,0,0,0) kv=0.1200 pf=0.92 kW=0.950685 Daily=RES1_25
New Load.BT_324832781_325484634_1 Bus1=node_404861856.1.4 Phases=1 Model=8 zipv=(0.5,0,0.5,1,0,0,0) kv=0.1270 pf=0.92 kW=8.831507 Daily=RES1_25
New Load.BT_324832781_325484634_2 Bus1=node_404861856.2.4 Phases=1 Model=8 zipv=(0.5,0,0.5,1,0,0,0) kv=0.1270 pf=0.92 kW=8.831507 Daily=RES1_25
New Load.BT_324832781_325484634_3 Bus1=node_404861856.3.4 Phases=1 Model=8 zipv=(0.5,0,0.5,1,0,0,0) kv=0.1270 pf=0.92 kW=8.831507 Daily=RES1_25
New Load.BT_324682685_325394229_1 Bus1=node_407846644.1.4 Phases=1 Model=8 zipv=(0.5,0,0.5,1,0,0,0) kv=0.1270 pf=0.92 kW=3.694977 Daily=RES1_25
New Load.BT_324682685_325394229_2 Bus1=node_407846644.2.4 Phases=1 Model=8 zipv=(0.5,0,0.5,1,0,0,0) kv=0.1270 pf=0.92 kW=3.694977 Daily=RES1_25
New Load.BT_324682685_325394229_3 Bus1=node_407846644.3.4 Phases=1 Model=8 zipv=(0.5,0,0.5,1,0,0,0) kv=0.1270 pf=0.92 kW=3.694977 Daily=RES1_25
New Load.BT_325088441_325482901_1 Bus1=node_411619922.1.4 Phases=1 Model=8 zipv=(0.5,0,0.5,1,0,0,0) kv=0.1270 pf=0.92 kW=5.125571 Daily=RES1_25
New Load.BT_325088441_325482901_2 Bus1=node_411619922.2.4 Phases=1 Model=8 zipv=(0.5,0,0.5,1,0,0,0) kv=0.1270 pf=0.92 kW=5.125571 Daily=RES1_25
New Load.BT_325088441_325482901_3 Bus1=node_411619922.3.4 Phases=1 Model=8 zipv=(0.5,0,0.5,1,0,0,0) kv=0.1270 pf=0.92 kW=5.125571 Daily=RES1_25
New Load.BT_325090039_325370850_1 Bus1=node_407847007.1.4 Phases=1 Model=8 zipv=(0.5,0,0.5,1,0,0,0) kv=0.1270 pf=0.92 kW=9.263927 Daily=RES1_25
New Load.BT_325090039_325370850_2 Bus1=node_407847007.2.4 Phases=1 Model=8 zipv=(0.5,0,0.5,1,0,0,0) kv=0.1270 pf=0.92 kW=9.263927 Daily=RES1_25
New Load.BT_325090039_325370850_3 Bus1=node_407847007.3.4 Phases=1 Model=8 zipv=(0.5,0,0.5,1,0,0,0) kv=0.1270 pf=0.92 kW=9.263927 Daily=RES1_25
New Load.BT_324958378_325481455_1 Bus1=node_418527852.1.4 Phases=1 Model=8 zipv=(0.5,0,0.5,1,0,0,0) kv=0.1270 pf=0.92 kW=8.589498 Daily=RES1_25
New Load.BT_324958378_325481455_2 Bus1=node_418527852.2.4 Phases=1 Model=8 zipv=(0.5,0,0.5,1,0,0,0) kv=0.1270 pf=0.92 kW=8.589498 Daily=RES1_25
New Load.BT_324958378_325481455_3 Bus1=node_418527852.3.4 Phases=1 Model=8 zipv=(0.5,0,0.5,1,0,0,0) kv=0.1270 pf=0.92 kW=8.589498 Daily=RES1_25
New Load.BT_324835800_325372569_1 Bus1=node_420926365.1.4 Phases=1 Model=8 zipv=(0.5,0,0.5,1,0,0,0) kv=0.1270 pf=0.92 kW=1.283562 Daily=RES1_25
New Load.BT_324835800_325372569_2 Bus1=node_420926365.2.4 Phases=1 Model=8 zipv=(0.5,0,0.5,1,0,0,0) kv=0.1270 pf=0.92 kW=1.283562 Daily=RES1_25
New Load.BT_324835800_325372569_3 Bus1=node_420926365.3.4 Phases=1 Model=8 zipv=(0.5,0,0.5,1,0,0,0) kv=0.1270 pf=0.92 kW=1.283562 Daily=RES1_25
New Load.BT_324683286_325370095_1 Bus1=node_411148090.1.4 Phases=1 Model=8 zipv=(0.5,0,0.5,1,0,0,0) kv=0.1200 pf=0.92 kW=0.165068 Daily=RES1_25
New Load.BT_324683286_325370095_2 Bus1=node_411148090.2.4 Phases=1 Model=8 zipv=(0.5,0,0.5,1,0,0,0) kv=0.1200 pf=0.92 kW=0.165068 Daily=RES1_25
New Load.BT_324836192_325370833_1 Bus1=node_418468917.1.4 Phases=1 Model=8 zipv=(0.5,0,0.5,1,0,0,0) kv=0.1270 pf=0.92 kW=2.822831 Daily=RES1_25
New Load.BT_324836192_325370833_2 Bus1=node_418468917.2.4 Phases=1 Model=8 zipv=(0.5,0,0.5,1,0,0,0) kv=0.1270 pf=0.92 kW=2.822831 Daily=RES1_25
New Load.BT_324836192_325370833_3 Bus1=node_418468917.3.4 Phases=1 Model=8 zipv=(0.5,0,0.5,1,0,0,0) kv=0.1270 pf=0.92 kW=2.822831 Daily=RES1_25
New Load.BT_324520341_325370844_1 Bus1=node_407846404.1.4 Phases=1 Model=8 zipv=(0.5,0,0.5,1,0,0,0) kv=0.1270 pf=0.92 kW=2.625571 Daily=RES1_25
New Load.BT_324520341_325370844_2 Bus1=node_407846404.2.4 Phases=1 Model=8 zipv=(0.5,0,0.5,1,0,0,0) kv=0.1270 pf=0.92 kW=2.625571 Daily=RES1_25
New Load.BT_324520341_325370844_3 Bus1=node_407846404.3.4 Phases=1 Model=8 zipv=(0.5,0,0.5,1,0,0,0) kv=0.1270 pf=0.92 kW=2.625571 Daily=RES1_25
New Load.BT_324958372_325444648_1 Bus1=node_411832404.1.4 Phases=1 Model=8 zipv=(0.5,0,0.5,1,0,0,0) kv=0.1200 pf=0.92 kW=0.234932 Daily=RES1_25
New Load.BT_324958372_325444648_2 Bus1=node_411832404.2.4 Phases=1 Model=8 zipv=(0.5,0,0.5,1,0,0,0) kv=0.1200 pf=0.92 kW=0.234932 Daily=RES1_25
New Load.BT_324208148_325484613_1 Bus1=node_407555636.1.4 Phases=1 Model=8 zipv=(0.5,0,0.5,1,0,0,0) kv=0.1270 pf=0.92 kW=2.952968 Daily=RES1_25
New Load.BT_324208148_325484613_2 Bus1=node_407555636.2.4 Phases=1 Model=8 zipv=(0.5,0,0.5,1,0,0,0) kv=0.1270 pf=0.92 kW=2.952968 Daily=RES1_25
New Load.BT_324208148_325484613_3 Bus1=node_407555636.3.4 Phases=1 Model=8 zipv=(0.5,0,0.5,1,0,0,0) kv=0.1270 pf=0.92 kW=2.952968 Daily=RES1_25
New Load.BT_325086988_325444930_1 Bus1=node_411644223.1.4 Phases=1 Model=8 zipv=(0.5,0,0.5,1,0,0,0) kv=0.1200 pf=0.92 kW=0.154795 Daily=RES1_25
New Load.BT_325086988_325444930_2 Bus1=node_411644223.2.4 Phases=1 Model=8 zipv=(0.5,0,0.5,1,0,0,0) kv=0.1200 pf=0.92 kW=0.154795 Daily=RES1_25
New Load.BT_324835624_325444179_1 Bus1=node_420915053.1.4 Phases=1 Model=8 zipv=(0.5,0,0.5,1,0,0,0) kv=0.1270 pf=0.92 kW=2.121005 Daily=RES1_25
New Load.BT_324835624_325444179_2 Bus1=node_420915053.2.4 Phases=1 Model=8 zipv=(0.5,0,0.5,1,0,0,0) kv=0.1270 pf=0.92 kW=2.121005 Daily=RES1_25
New Load.BT_324835624_325444179_3 Bus1=node_420915053.3.4 Phases=1 Model=8 zipv=(0.5,0,0.5,1,0,0,0) kv=0.1270 pf=0.92 kW=2.121005 Daily=RES1_25
New Load.BT_324522953_325472247_1 Bus1=node_418705291.1.4 Phases=1 Model=8 zipv=(0.5,0,0.5,1,0,0,0) kv=0.1200 pf=0.92 kW=0.232877 Daily=RES1_25
New Load.BT_324522953_325472247_2 Bus1=node_418705291.2.4 Phases=1 Model=8 zipv=(0.5,0,0.5,1,0,0,0) kv=0.1200 pf=0.92 kW=0.232877 Daily=RES1_25
New Load.BT_325090025_325416892_1 Bus1=node_420626286.1.4 Phases=1 Model=8 zipv=(0.5,0,0.5,1,0,0,0) kv=0.1200 pf=0.92 kW=2.604795 Daily=RES1_25
New Load.BT_325090025_325416892_2 Bus1=node_420626286.2.4 Phases=1 Model=8 zipv=(0.5,0,0.5,1,0,0,0) kv=0.1200 pf=0.92 kW=2.604795 Daily=RES1_25
New Load.BT_324520797_325370762_1 Bus1=node_418706368.1.4 Phases=1 Model=8 zipv=(0.5,0,0.5,1,0,0,0) kv=0.1270 pf=0.92 kW=4.031050 Daily=RES1_25
New Load.BT_324520797_325370762_2 Bus1=node_418706368.2.4 Phases=1 Model=8 zipv=(0.5,0,0.5,1,0,0,0) kv=0.1270 pf=0.92 kW=4.031050 Daily=RES1_25
New Load.BT_324520797_325370762_3 Bus1=node_418706368.3.4 Phases=1 Model=8 zipv=(0.5,0,0.5,1,0,0,0) kv=0.1270 pf=0.92 kW=4.031050 Daily=RES1_25
New Load.BT_324209406_325443541_1 Bus1=node_407555531.1.4 Phases=1 Model=8 zipv=(0.5,0,0.5,1,0,0,0) kv=0.1270 pf=0.92 kW=4.196347 Daily=RES1_25
New Load.BT_324209406_325443541_2 Bus1=node_407555531.2.4 Phases=1 Model=8 zipv=(0.5,0,0.5,1,0,0,0) kv=0.1270 pf=0.92 kW=4.196347 Daily=RES1_25
New Load.BT_324209406_325443541_3 Bus1=node_407555531.3.4 Phases=1 Model=8 zipv=(0.5,0,0.5,1,0,0,0) kv=0.1270 pf=0.92 kW=4.196347 Daily=RES1_25
New Load.BT_325086884_325420375_1 Bus1=node_404861844.1.4 Phases=1 Model=8 zipv=(0.5,0,0.5,1,0,0,0) kv=0.1270 pf=0.92 kW=3.540639 Daily=RES1_25
New Load.BT_325086884_325420375_2 Bus1=node_404861844.2.4 Phases=1 Model=8 zipv=(0.5,0,0.5,1,0,0,0) kv=0.1270 pf=0.92 kW=3.540639 Daily=RES1_25
New Load.BT_325086884_325420375_3 Bus1=node_404861844.3.4 Phases=1 Model=8 zipv=(0.5,0,0.5,1,0,0,0) kv=0.1270 pf=0.92 kW=3.540639 Daily=RES1_25
New Load.BT_324523150_2300699436_1 Bus1=node_404861865.1.4 Phases=1 Model=8 zipv=(0.5,0,0.5,1,0,0,0) kv=0.1270 pf=0.92 kW=10.131507 Daily=RES1_25
New Load.BT_324523150_2300699436_2 Bus1=node_404861865.2.4 Phases=1 Model=8 zipv=(0.5,0,0.5,1,0,0,0) kv=0.1270 pf=0.92 kW=10.131507 Daily=RES1_25
New Load.BT_324523150_2300699436_3 Bus1=node_404861865.3.4 Phases=1 Model=8 zipv=(0.5,0,0.5,1,0,0,0) kv=0.1270 pf=0.92 kW=10.131507 Daily=RES1_25
New Load.BT_324686133_325372973_1 Bus1=node_411831543.1.4 Phases=1 Model=8 zipv=(0.5,0,0.5,1,0,0,0) kv=0.1200 pf=0.92 kW=1.576027 Daily=RES1_25
New Load.BT_324686133_325372973_2 Bus1=node_411831543.2.4 Phases=1 Model=8 zipv=(0.5,0,0.5,1,0,0,0) kv=0.1200 pf=0.92 kW=1.576027 Daily=RES1_25
New Load.BT_324205985_325372134_1 Bus1=node_408783120.1.4 Phases=1 Model=8 zipv=(0.5,0,0.5,1,0,0,0) kv=0.1270 pf=0.92 kW=3.536986 Daily=RES1_25
New Load.BT_324205985_325372134_2 Bus1=node_408783120.2.4 Phases=1 Model=8 zipv=(0.5,0,0.5,1,0,0,0) kv=0.1270 pf=0.92 kW=3.536986 Daily=RES1_25
New Load.BT_324205985_325372134_3 Bus1=node_408783120.3.4 Phases=1 Model=8 zipv=(0.5,0,0.5,1,0,0,0) kv=0.1270 pf=0.92 kW=3.536986 Daily=RES1_25
New Load.BT_324961088_325481238_1 Bus1=node_407988242.1.4 Phases=1 Model=8 zipv=(0.5,0,0.5,1,0,0,0) kv=0.1200 pf=0.92 kW=2.608904 Daily=RES1_25
New Load.BT_324961088_325481238_2 Bus1=node_407988242.2.4 Phases=1 Model=8 zipv=(0.5,0,0.5,1,0,0,0) kv=0.1200 pf=0.92 kW=2.608904 Daily=RES1_25
New Load.BT_324682347_325445091_1 Bus1=node_420871563.1.4 Phases=1 Model=8 zipv=(0.5,0,0.5,1,0,0,0) kv=0.1200 pf=0.92 kW=6.039041 Daily=RES1_25
New Load.BT_324682347_325445091_2 Bus1=node_420871563.2.4 Phases=1 Model=8 zipv=(0.5,0,0.5,1,0,0,0) kv=0.1200 pf=0.92 kW=6.039041 Daily=RES1_25
New Load.BT_324520673_325482498_1 Bus1=node_420541260.1.4 Phases=1 Model=8 zipv=(0.5,0,0.5,1,0,0,0) kv=0.1200 pf=0.92 kW=5.143151 Daily=RES1_25
New Load.BT_324520673_325482498_2 Bus1=node_420541260.2.4 Phases=1 Model=8 zipv=(0.5,0,0.5,1,0,0,0) kv=0.1200 pf=0.92 kW=5.143151 Daily=RES1_25
New Load.BT_325088367_325469697_1 Bus1=node_418706242.1.4 Phases=1 Model=8 zipv=(0.5,0,0.5,1,0,0,0) kv=0.1270 pf=0.92 kW=5.060731 Daily=RES1_25
New Load.BT_325088367_325469697_2 Bus1=node_418706242.2.4 Phases=1 Model=8 zipv=(0.5,0,0.5,1,0,0,0) kv=0.1270 pf=0.92 kW=5.060731 Daily=RES1_25
New Load.BT_325088367_325469697_3 Bus1=node_418706242.3.4 Phases=1 Model=8 zipv=(0.5,0,0.5,1,0,0,0) kv=0.1270 pf=0.92 kW=5.060731 Daily=RES1_25
New Load.BT_324206409_325416867_1 Bus1=node_420529484.1.4 Phases=1 Model=8 zipv=(0.5,0,0.5,1,0,0,0) kv=0.1200 pf=0.92 kW=5.236986 Daily=RES1_25
New Load.BT_324206409_325416867_2 Bus1=node_420529484.2.4 Phases=1 Model=8 zipv=(0.5,0,0.5,1,0,0,0) kv=0.1200 pf=0.92 kW=5.236986 Daily=RES1_25
New Load.BT_324957243_325420138_1 Bus1=node_407985995.1.4 Phases=1 Model=8 zipv=(0.5,0,0.5,1,0,0,0) kv=0.1270 pf=0.92 kW=1.564840 Daily=RES1_25
New Load.BT_324957243_325420138_2 Bus1=node_407985995.2.4 Phases=1 Model=8 zipv=(0.5,0,0.5,1,0,0,0) kv=0.1270 pf=0.92 kW=1.564840 Daily=RES1_25
New Load.BT_324957243_325420138_3 Bus1=node_407985995.3.4 Phases=1 Model=8 zipv=(0.5,0,0.5,1,0,0,0) kv=0.1270 pf=0.92 kW=1.564840 Daily=RES1_25
New Load.BT_324208705_325420350_1 Bus1=node_407846578.1.4 Phases=1 Model=8 zipv=(0.5,0,0.5,1,0,0,0) kv=0.1270 pf=0.92 kW=2.885845 Daily=RES1_25
New Load.BT_324208705_325420350_2 Bus1=node_407846578.2.4 Phases=1 Model=8 zipv=(0.5,0,0.5,1,0,0,0) kv=0.1270 pf=0.92 kW=2.885845 Daily=RES1_25
New Load.BT_324208705_325420350_3 Bus1=node_407846578.3.4 Phases=1 Model=8 zipv=(0.5,0,0.5,1,0,0,0) kv=0.1270 pf=0.92 kW=2.885845 Daily=RES1_25
New Load.BT_324960032_325392607_1 Bus1=node_404863611.1.4 Phases=1 Model=8 zipv=(0.5,0,0.5,1,0,0,0) kv=0.1270 pf=0.92 kW=5.097260 Daily=RES1_25
New Load.BT_324960032_325392607_2 Bus1=node_404863611.2.4 Phases=1 Model=8 zipv=(0.5,0,0.5,1,0,0,0) kv=0.1270 pf=0.92 kW=5.097260 Daily=RES1_25
New Load.BT_324960032_325392607_3 Bus1=node_404863611.3.4 Phases=1 Model=8 zipv=(0.5,0,0.5,1,0,0,0) kv=0.1270 pf=0.92 kW=5.097260 Daily=RES1_25
New Load.BT_905927559_905927564_1 Bus1=node_1167238780.1.4 Phases=1 Model=8 zipv=(0.5,0,0.5,1,0,0,0) kv=0.1270 pf=0.92 kW=4.061644 Daily=RES1_25
New Load.BT_905927559_905927564_2 Bus1=node_1167238780.2.4 Phases=1 Model=8 zipv=(0.5,0,0.5,1,0,0,0) kv=0.1270 pf=0.92 kW=4.061644 Daily=RES1_25
New Load.BT_905927559_905927564_3 Bus1=node_1167238780.3.4 Phases=1 Model=8 zipv=(0.5,0,0.5,1,0,0,0) kv=0.1270 pf=0.92 kW=4.061644 Daily=RES1_25
New Load.BT_886573756_886573755_1 Bus1=node_1151419261.1.4 Phases=1 Model=8 zipv=(0.5,0,0.5,1,0,0,0) kv=0.1270 pf=0.92 kW=5.672603 Daily=RES1_25
New Load.BT_886573756_886573755_2 Bus1=node_1151419261.2.4 Phases=1 Model=8 zipv=(0.5,0,0.5,1,0,0,0) kv=0.1270 pf=0.92 kW=5.672603 Daily=RES1_25
New Load.BT_886573756_886573755_3 Bus1=node_1151419261.3.4 Phases=1 Model=8 zipv=(0.5,0,0.5,1,0,0,0) kv=0.1270 pf=0.92 kW=5.672603 Daily=RES1_25
New Load.BT_324207426_325373217_1 Bus1=node_411832983.1.4 Phases=1 Model=8 zipv=(0.5,0,0.5,1,0,0,0) kv=0.1200 pf=0.92 kW=2.619178 Daily=RES1_25
New Load.BT_324207426_325373217_2 Bus1=node_411832983.2.4 Phases=1 Model=8 zipv=(0.5,0,0.5,1,0,0,0) kv=0.1200 pf=0.92 kW=2.619178 Daily=RES1_25
New Load.BT_324960436_325481765_1 Bus1=node_420927631.1.4 Phases=1 Model=8 zipv=(0.5,0,0.5,1,0,0,0) kv=0.1270 pf=0.92 kW=0.801826 Daily=RES1_25
New Load.BT_324960436_325481765_2 Bus1=node_420927631.2.4 Phases=1 Model=8 zipv=(0.5,0,0.5,1,0,0,0) kv=0.1270 pf=0.92 kW=0.801826 Daily=RES1_25
New Load.BT_324960436_325481765_3 Bus1=node_420927631.3.4 Phases=1 Model=8 zipv=(0.5,0,0.5,1,0,0,0) kv=0.1270 pf=0.92 kW=0.801826 Daily=RES1_25
New Load.BT_324958808_325443557_1 Bus1=node_404861859.1.4 Phases=1 Model=8 zipv=(0.5,0,0.5,1,0,0,0) kv=0.1270 pf=0.92 kW=2.673973 Daily=RES1_25
New Load.BT_324958808_325443557_2 Bus1=node_404861859.2.4 Phases=1 Model=8 zipv=(0.5,0,0.5,1,0,0,0) kv=0.1270 pf=0.92 kW=2.673973 Daily=RES1_25
New Load.BT_324958808_325443557_3 Bus1=node_404861859.3.4 Phases=1 Model=8 zipv=(0.5,0,0.5,1,0,0,0) kv=0.1270 pf=0.92 kW=2.673973 Daily=RES1_25
New Load.BT_324836197_325445395_1 Bus1=node_407556068.1.4 Phases=1 Model=8 zipv=(0.5,0,0.5,1,0,0,0) kv=0.1270 pf=0.92 kW=5.567123 Daily=RES1_25
New Load.BT_324836197_325445395_2 Bus1=node_407556068.2.4 Phases=1 Model=8 zipv=(0.5,0,0.5,1,0,0,0) kv=0.1270 pf=0.92 kW=5.567123 Daily=RES1_25
New Load.BT_324836197_325445395_3 Bus1=node_407556068.3.4 Phases=1 Model=8 zipv=(0.5,0,0.5,1,0,0,0) kv=0.1270 pf=0.92 kW=5.567123 Daily=RES1_25
New Load.BT_325088355_2213994991_1 Bus1=node_407846047.1.4 Phases=1 Model=8 zipv=(0.5,0,0.5,1,0,0,0) kv=0.1270 pf=0.92 kW=4.206849 Daily=RES1_25
New Load.BT_325088355_2213994991_2 Bus1=node_407846047.2.4 Phases=1 Model=8 zipv=(0.5,0,0.5,1,0,0,0) kv=0.1270 pf=0.92 kW=4.206849 Daily=RES1_25
New Load.BT_325088355_2213994991_3 Bus1=node_407846047.3.4 Phases=1 Model=8 zipv=(0.5,0,0.5,1,0,0,0) kv=0.1270 pf=0.92 kW=4.206849 Daily=RES1_25
New Load.BT_324685052_325394262_1 Bus1=node_404862285.1.4 Phases=1 Model=8 zipv=(0.5,0,0.5,1,0,0,0) kv=0.1270 pf=0.92 kW=5.380822 Daily=RES1_25
New Load.BT_324685052_325394262_2 Bus1=node_404862285.2.4 Phases=1 Model=8 zipv=(0.5,0,0.5,1,0,0,0) kv=0.1270 pf=0.92 kW=5.380822 Daily=RES1_25
New Load.BT_324685052_325394262_3 Bus1=node_404862285.3.4 Phases=1 Model=8 zipv=(0.5,0,0.5,1,0,0,0) kv=0.1270 pf=0.92 kW=5.380822 Daily=RES1_25
New Load.BT_324519821_325469584_1 Bus1=node_411207565.1.4 Phases=1 Model=8 zipv=(0.5,0,0.5,1,0,0,0) kv=0.1200 pf=0.92 kW=1.510959 Daily=RES1_25
...

! --- cargas de media tensao (UCMT_tab) ---
New Load.MT_node_114435844_4 Bus1=node_114435844.1.2.3 Phases=3 Conn=wye Model=8 zipv=(0.5,0,0.5,1,0,0,0) kv=13.8000 pf=0.92 kW=74.3616 Daily=MT1_1
New Load.MT_node_114436419_6 Bus1=node_114436419.1.2.3 Phases=3 Conn=wye Model=8 zipv=(0.5,0,0.5,1,0,0,0) kv=13.8000 pf=0.92 kW=76.3836 Daily=MT1_1
New Load.MT_node_107686858_7 Bus1=node_107686858.1.2.3 Phases=3 Conn=wye Model=8 zipv=(0.5,0,0.5,1,0,0,0) kv=13.8000 pf=0.92 kW=7.4137 Daily=MT1_1
New Load.MT_node_695739680_9 Bus1=node_695739680.1.2.3 Phases=3 Conn=wye Model=8 zipv=(0.5,0,0.5,1,0,0,0) kv=13.8000 pf=0.92 kW=19.4329 Daily=MT1_1
New Load.MT_node_113428598_10 Bus1=node_113428598.1.2.3 Phases=3 Conn=wye Model=8 zipv=(0.5,0,0.5,1,0,0,0) kv=13.8000 pf=0.92 kW=14.0411 Daily=MT1_1
New Load.MT_node_107452966_11 Bus1=node_107452966.1.2.3 Phases=3 Conn=wye Model=8 zipv=(0.5,0,0.5,1,0,0,0) kv=13.8000 pf=0.92 kW=28.0822 Daily=MT1_1
New Load.MT_node_114095672_12 Bus1=node_114095672.1.2.3 Phases=3 Conn=wye Model=8 zipv=(0.5,0,0.5,1,0,0,0) kv=13.8000 pf=0.92 kW=14.4904 Daily=MT1_1
New Load.MT_node_107653755_13 Bus1=node_107653755.1.2.3 Phases=3 Conn=wye Model=8 zipv=(0.5,0,0.5,1,0,0,0) kv=13.8000 pf=0.92 kW=17.5795 Daily=MT1_1
New Load.MT_node_113251423_14 Bus1=node_113251423.1.2.3 Phases=3 Conn=wye Model=8 zipv=(0.5,0,0.5,1,0,0,0) kv=13.8000 pf=0.92 kW=16.0630 Daily=MT1_1
New Load.MT_node_697083869_15 Bus1=node_697083869.1.2.3 Phases=3 Conn=wye Model=8 zipv=(0.5,0,0.5,1,0,0,0) kv=13.8000 pf=0.92 kW=10.9521 Daily=MT1_1
New Load.MT_node_109914881_16 Bus1=node_109914881.1.2.3 Phases=3 Conn=wye Model=8 zipv=(0.5,0,0.5,1,0,0,0) kv=13.8000 pf=0.92 kW=8.5370 Daily=MT1_1
New Load.MT_node_2760772732_17 Bus1=node_2760772732.1.2.3 Phases=3 Conn=wye Model=8 zipv=(0.5,0,0.5,1,0,0,0) kv=13.8000 pf=0.92 kW=5.7534 Daily=MT1_1
New Load.MT_node_107686418_18 Bus1=node_107686418.1.2.3 Phases=3 Conn=wye Model=8 zipv=(0.5,0,0.5,1,0,0,0) kv=13.8000 pf=0.92 kW=1.9096 Daily=MT1_1
New Load.MT_node_114095522_20 Bus1=node_114095522.1.2.3 Phases=3 Conn=wye Model=8 zipv=(0.5,0,0.5,1,0,0,0) kv=13.8000 pf=0.92 kW=2.7521 Daily=MT5_1
New Load.MT_node_114095662_21 Bus1=node_114095662.1.2.3 Phases=3 Conn=wye Model=8 zipv=(0.5,0,0.5,1,0,0,0) kv=13.8000 pf=0.92 kW=6.4027 Daily=MT1_1
New Load.MT_node_107685578_23 Bus1=node_107685578.1.2.3 Phases=3 Conn=wye Model=8 zipv=(0.5,0,0.5,1,0,0,0) kv=13.8000 pf=0.92 kW=12.2438 Daily=MT1_1
New Load.MT_node_107685308_24 Bus1=node_107685308.1.2.3 Phases=3 Conn=wye Model=8 zipv=(0.5,0,0.5,1,0,0,0) kv=13.8000 pf=0.92 kW=7.2452 Daily=MT1_1
New Load.MT_node_114605966_25 Bus1=node_114605966.1.2.3 Phases=3 Conn=wye Model=8 zipv=(0.5,0,0.5,1,0,0,0) kv=13.8000 pf=0.92 kW=0.0562 Daily=MT5_1
New Load.MT_node_111293254_27 Bus1=node_111293254.1.2.3 Phases=3 Conn=wye Model=8 zipv=(0.5,0,0.5,1,0,0,0) kv=13.8000 pf=0.92 kW=61.3315 Daily=MT1_1
